Version 4
SHEET 1 2320 680
WIRE -96 -368 -96 -384
WIRE -96 -352 -96 -368
WIRE -96 -240 -96 -272
WIRE 1120 -240 1104 -240
WIRE 768 -224 768 -272
WIRE 1104 -224 1104 -240
WIRE 672 -192 608 -192
WIRE 752 -192 672 -192
WIRE 1056 -192 880 -192
WIRE 1408 -192 1312 -192
WIRE 1424 -192 1408 -192
WIRE 752 -176 752 -192
WIRE 768 -176 768 -224
WIRE 624 -128 624 -144
WIRE 1504 -128 1504 -144
WIRE 576 -112 576 -128
WIRE 832 -112 800 -112
WIRE 864 -112 832 -112
WIRE 944 -112 944 -144
WIRE 992 -112 992 -144
WIRE 624 -96 624 -128
WIRE 624 -96 592 -96
WIRE 576 -80 576 -112
WIRE 592 -80 592 -96
WIRE 944 -80 944 -112
WIRE 992 -80 992 -112
WIRE 992 -80 960 -80
WIRE 1504 -80 1504 -128
WIRE 528 -48 512 -48
WIRE 880 -48 880 -192
WIRE 880 -48 640 -48
WIRE 1056 -48 1008 -48
WIRE 1120 -48 1056 -48
WIRE 1408 -48 1376 -48
WIRE 1456 -48 1408 -48
WIRE 336 0 336 -16
WIRE 624 0 592 0
WIRE 768 0 768 -64
WIRE 944 0 768 0
WIRE 336 16 336 0
WIRE 1504 16 1504 0
WIRE 576 32 576 0
WIRE 720 32 576 32
WIRE 752 32 752 -64
WIRE 752 32 720 32
WIRE 960 32 960 0
WIRE 960 32 784 32
WIRE 160 48 112 48
WIRE 272 48 160 48
WIRE 512 48 512 -48
WIRE 512 48 384 48
WIRE 896 48 896 -48
WIRE 896 48 512 48
WIRE 272 64 0 64
WIRE 384 96 384 64
WIRE 896 96 384 96
WIRE 544 112 528 112
WIRE 576 112 544 112
WIRE 624 112 624 0
WIRE 672 112 624 112
WIRE 944 112 944 96
WIRE 1008 112 1008 80
WIRE 576 128 576 112
WIRE 608 128 592 128
WIRE 624 128 608 128
WIRE 944 128 944 112
WIRE 1008 128 1008 112
WIRE 1008 128 960 128
WIRE 1200 128 1200 80
WIRE 1328 128 1328 80
WIRE 0 160 0 64
WIRE 384 160 384 96
WIRE 528 160 384 160
WIRE 704 160 640 160
WIRE 896 160 896 96
WIRE 1152 160 1008 160
WIRE 1520 160 1408 160
WIRE 1568 160 1520 160
WIRE 0 176 0 160
WIRE 1360 208 1232 208
WIRE 576 224 576 208
WIRE 720 224 720 32
WIRE 720 224 576 224
WIRE 768 240 768 0
WIRE 944 240 944 208
WIRE 944 240 768 240
WIRE 704 256 704 160
WIRE 1168 256 704 256
WIRE 1232 256 1232 208
WIRE 1360 256 1360 208
WIRE 592 272 592 208
WIRE 672 272 672 112
WIRE 672 272 592 272
WIRE 720 272 672 272
WIRE 784 272 784 32
WIRE 784 272 736 272
WIRE 960 272 960 208
WIRE 960 272 784 272
WIRE 736 288 736 272
WIRE 736 288 704 288
WIRE 1168 288 1168 256
WIRE 1184 288 1168 288
WIRE 1520 288 1440 288
WIRE 1536 288 1520 288
WIRE 0 304 0 256
WIRE 720 304 720 272
WIRE 736 304 720 304
WIRE 704 320 704 288
WIRE 720 320 704 320
WIRE 736 320 736 304
WIRE 672 368 656 368
WIRE 688 368 672 368
WIRE 1472 368 1472 352
WIRE 1472 384 1472 368
WIRE 96 416 80 416
WIRE 128 416 96 416
WIRE 960 432 960 384
WIRE 1056 432 1056 384
WIRE 1296 432 1296 384
WIRE 80 448 80 416
WIRE 736 448 736 432
WIRE 816 448 736 448
WIRE 832 448 816 448
WIRE 1472 480 1472 464
WIRE 720 496 720 432
WIRE 720 512 720 496
WIRE 80 544 80 528
WIRE 960 560 960 512
WIRE 1056 560 1056 512
WIRE 1296 576 1296 512
FLAG -96 -240 0
FLAG 0 304 0
FLAG 80 544 0
FLAG 1472 480 0
FLAG 1504 16 0
FLAG 1504 -128 vdd
FLAG -96 -368 PC
FLAG 0 160 WLR
FLAG 1472 368 WLW
FLAG 336 0 vdd
FLAG 832 -112 vdd
FLAG 672 368 vdd
FLAG 160 48 SR
FLAG 1056 384 SR
FLAG 720 496 SWW
FLAG 1296 384 SWW
FLAG 768 -224 SB
FLAG 960 384 SB
FLAG 576 -112 vdd
FLAG 544 112 vdd
FLAG 944 112 vdd
FLAG 944 -112 vdd
FLAG 624 -128 PC
FLAG 992 -112 PC
FLAG 608 128 PC
FLAG 1008 112 PC
FLAG 1056 -48 bl3
FLAG 96 416 BLW
FLAG 960 560 0
FLAG 1056 560 0
FLAG 1296 576 0
FLAG 672 -192 BLW
FLAG 816 448 WLW
FLAG 1520 160 bl1
FLAG 1120 -240 vdd
FLAG 1232 -224 vdd
FLAG 1168 -80 vdd
FLAG 1296 -80 vdd
FLAG 1408 -192 bl2
FLAG 1408 -48 bl3
FLAG 1520 288 bl0
DATAFLAG 784 96 ""
SYMBOL voltage -96 -368 R0
WINDOW 123 0 0 Left 0
WINDOW 39 0 0 Left 0
SYMATTR InstName V1
SYMATTR Value PWL(0 0 4.9n 0 5n 5 9.9n 5 10n 0 14.9n 0 15n 5 19.9n 5 20n 0 24.9n 0 25n 5 29.9n 5 30n 0 34.9n 0 35n 5 39.9n 5 40n 0 44.9n 0 45n 5 49.9n 5 50n 0)
SYMBOL voltage 0 160 R0
WINDOW 123 0 0 Left 0
WINDOW 39 0 0 Left 0
SYMATTR InstName V2
SYMATTR Value PWL(0 0 19.9n 0 20n 5 24.9n 5 25n 0 39.99n 0 40n 5 44.99n 5 45n 0)
SYMBOL voltage 80 432 R0
WINDOW 3 24 44 Left 2
WINDOW 123 0 0 Left 0
WINDOW 39 0 0 Left 0
SYMATTR Value PWL(0 0 9.9n 0 10n 5 19.9n 5 20n 0)
SYMATTR InstName V3
SYMBOL voltage 1472 368 R0
WINDOW 123 0 0 Left 0
WINDOW 39 0 0 Left 0
SYMATTR InstName V4
SYMATTR Value PWL(0 0 9.99n 0 10n 5 14.99n 5 15n 0 29.99n 0 30n 5 34.99n 5 35n 0)
SYMBOL voltage 1504 -96 R0
WINDOW 123 0 0 Left 0
WINDOW 39 0 0 Left 0
SYMATTR InstName V5
SYMATTR Value 5
SYMBOL 3T_1D_2tst 672 -32 R0
SYMATTR InstName X1
SYMBOL 3T_1D_2tst 1040 -32 R0
SYMATTR InstName X2
SYMBOL 3T_1D_2tst 672 176 R0
SYMATTR InstName X3
SYMBOL 3T_1D_2tst 1040 176 R0
SYMATTR InstName X4
SYMBOL stat_dec 416 64 R0
SYMATTR InstName X5
SYMBOL stat_dec 736 288 R270
SYMATTR InstName X6
SYMBOL stat_dec 752 -32 R90
SYMATTR InstName X7
SYMBOL voltage 960 416 R0
WINDOW 123 0 0 Left 0
WINDOW 39 0 0 Left 0
SYMATTR InstName V6
SYMATTR Value 0
SYMBOL voltage 1056 416 R0
WINDOW 123 0 0 Left 0
WINDOW 39 0 0 Left 0
SYMATTR InstName V7
SYMATTR Value 5
SYMBOL voltage 1296 416 R0
WINDOW 123 0 0 Left 0
WINDOW 39 0 0 Left 0
SYMATTR InstName V8
SYMATTR Value 0
SYMBOL inv 1248 176 R0
SYMATTR InstName X8
SYMBOL inv 1376 176 R0
SYMATTR InstName X9
SYMBOL inv 1280 304 R0
SYMATTR InstName X10
SYMBOL inv 1408 304 R0
SYMATTR InstName X11
SYMBOL inv 1216 -32 R0
SYMATTR InstName X12
SYMBOL inv 1344 -32 R0
SYMATTR InstName X13
SYMBOL inv 1152 -176 R0
SYMATTR InstName X14
SYMBOL inv 1280 -176 R0
SYMATTR InstName X15
TEXT -128 360 Left 2 !.tran 50n
