Version 4
SHEET 1 2320 680
WIRE -192 -512 -192 -528
WIRE -192 -496 -192 -512
WIRE -192 -384 -192 -416
WIRE -400 -336 -400 -352
WIRE 1104 -336 1088 -336
WIRE 752 -320 752 -368
WIRE 1088 -320 1088 -336
WIRE -400 -288 -400 -336
WIRE 656 -288 592 -288
WIRE 736 -288 656 -288
WIRE 1040 -288 864 -288
WIRE 1392 -288 1296 -288
WIRE 1408 -288 1392 -288
WIRE 736 -272 736 -288
WIRE 752 -272 752 -320
WIRE 608 -224 608 -240
WIRE 560 -208 560 -224
WIRE 816 -208 784 -208
WIRE 848 -208 816 -208
WIRE 928 -208 928 -240
WIRE 976 -208 976 -240
WIRE -400 -192 -400 -208
WIRE 608 -192 608 -224
WIRE 608 -192 576 -192
WIRE 560 -176 560 -208
WIRE 576 -176 576 -192
WIRE 928 -176 928 -208
WIRE 976 -176 976 -208
WIRE 976 -176 944 -176
WIRE 512 -144 496 -144
WIRE 864 -144 864 -288
WIRE 864 -144 624 -144
WIRE 1040 -144 992 -144
WIRE 1104 -144 1040 -144
WIRE 1392 -144 1360 -144
WIRE 1440 -144 1392 -144
WIRE 320 -96 320 -112
WIRE 592 -96 576 -96
WIRE 608 -96 592 -96
WIRE 752 -96 752 -160
WIRE 928 -96 752 -96
WIRE 320 -80 320 -96
WIRE 944 -80 944 -96
WIRE 560 -64 560 -96
WIRE 704 -64 560 -64
WIRE 736 -64 736 -160
WIRE 736 -64 704 -64
WIRE 944 -64 944 -80
WIRE 144 -48 96 -48
WIRE 256 -48 144 -48
WIRE 496 -48 496 -144
WIRE 496 -48 368 -48
WIRE 880 -48 880 -144
WIRE 880 -48 496 -48
WIRE 256 -32 -480 -32
WIRE -480 -16 -480 -32
WIRE 1232 -16 1184 -16
WIRE 1312 -16 1232 -16
WIRE 368 0 368 -32
WIRE 880 0 368 0
WIRE 528 16 512 16
WIRE 560 16 528 16
WIRE 928 16 928 0
WIRE 992 16 992 -16
WIRE 560 32 560 16
WIRE 592 32 576 32
WIRE 608 32 592 32
WIRE 928 32 928 16
WIRE 992 32 992 16
WIRE 992 32 944 32
WIRE 1184 32 1184 -16
WIRE 1312 32 1312 -16
WIRE 368 64 368 0
WIRE 512 64 368 64
WIRE 688 64 624 64
WIRE 880 64 880 0
WIRE 1136 64 992 64
WIRE 1504 64 1392 64
WIRE 1552 64 1504 64
WIRE -480 112 -480 64
WIRE 560 128 560 112
WIRE 704 128 704 -64
WIRE 704 128 560 128
WIRE 752 144 752 -96
WIRE 928 144 928 112
WIRE 928 144 752 144
WIRE 688 160 688 64
WIRE 1152 160 688 160
WIRE 1152 192 1152 160
WIRE 1168 192 1152 192
WIRE 1504 192 1424 192
WIRE 1520 192 1504 192
WIRE 80 320 64 320
WIRE 112 320 80 320
WIRE 944 336 944 288
WIRE 1040 336 1040 288
WIRE 64 352 64 320
WIRE -480 432 -480 416
WIRE -480 448 -480 432
WIRE 64 448 64 432
WIRE 944 464 944 416
WIRE 1040 464 1040 416
WIRE -480 544 -480 528
FLAG -192 -384 0
FLAG -480 112 0
FLAG 64 448 0
FLAG -480 544 0
FLAG -400 -192 0
FLAG -400 -336 vdd
FLAG -192 -512 PC
FLAG -480 -32 WLR
FLAG -480 432 WLW
FLAG 320 -96 vdd
FLAG 816 -208 vdd
FLAG 144 -48 SR
FLAG 1040 288 SR
FLAG 752 -320 SB
FLAG 944 288 SB
FLAG 560 -208 vdd
FLAG 528 16 vdd
FLAG 928 16 vdd
FLAG 928 -208 vdd
FLAG 608 -224 PC
FLAG 976 -208 PC
FLAG 592 32 PC
FLAG 992 16 PC
FLAG 1040 -144 bl3
FLAG 80 320 BLW
FLAG 944 464 0
FLAG 1040 464 0
FLAG 656 -288 BLW
FLAG 1504 64 bl1
FLAG 1104 -336 vdd
FLAG 1216 -320 vdd
FLAG 1152 -176 vdd
FLAG 1280 -176 vdd
FLAG 1232 -16 vdd
FLAG 1216 160 vdd
FLAG 1344 160 vdd
FLAG 1392 -288 bl2
FLAG 1392 -144 bl3
FLAG 1504 192 bl0
FLAG 576 112 WLW
FLAG 944 112 WLW
FLAG 944 -80 WLW
FLAG 592 -96 WLW
DATAFLAG 768 0 ""
SYMBOL voltage -192 -512 R0
WINDOW 123 0 0 Left 0
WINDOW 39 0 0 Left 0
SYMATTR InstName V1
SYMATTR Value PWL(0 0 4.9n 0 5n 5 9.9n 5 10n 0 14.9n 0 15n 5 19.9n 5 20n 0 24.9n 0 25n 5 29.9n 5 30n 0 34.9n 0 35n 5 39.9n 5 40n 0 44.9n 0 45n 5 49.9n 5 50n 0)
SYMBOL voltage -480 -32 R0
WINDOW 123 0 0 Left 0
WINDOW 39 0 0 Left 0
SYMATTR InstName V2
SYMATTR Value PWL(0 0 19.9n 0 20n 5 24.9n 5 25n 0 39.99n 0 40n 5 44.99n 5 45n 0)
SYMBOL voltage 64 336 R0
WINDOW 3 24 44 Left 2
WINDOW 123 0 0 Left 0
WINDOW 39 0 0 Left 0
SYMATTR Value PWL(0 0 9.9n 0 10n 5 19.9n 5 20n 0)
SYMATTR InstName V3
SYMBOL voltage -480 432 R0
WINDOW 123 0 0 Left 0
WINDOW 39 0 0 Left 0
SYMATTR InstName V4
SYMATTR Value PWL(0 0 9.99n 0 10n 5 14.99n 5 15n 0 29.99n 0 30n 5 34.99n 5 35n 0)
SYMBOL voltage -400 -304 R0
WINDOW 123 0 0 Left 0
WINDOW 39 0 0 Left 0
SYMATTR InstName V5
SYMATTR Value 5
SYMBOL 3T_1D_2tst 656 -128 R0
SYMATTR InstName X1
SYMBOL 3T_1D_2tst 1024 -128 R0
SYMATTR InstName X2
SYMBOL 3T_1D_2tst 656 80 R0
SYMATTR InstName X3
SYMBOL 3T_1D_2tst 1024 80 R0
SYMATTR InstName X4
SYMBOL stat_dec 400 -32 R0
SYMATTR InstName X5
SYMBOL stat_dec 736 -128 R90
SYMATTR InstName X7
SYMBOL voltage 944 320 R0
WINDOW 123 0 0 Left 0
WINDOW 39 0 0 Left 0
SYMATTR InstName V6
SYMATTR Value 5
SYMBOL voltage 1040 320 R0
WINDOW 123 0 0 Left 0
WINDOW 39 0 0 Left 0
SYMATTR InstName V7
SYMATTR Value 0
SYMBOL inv 1232 80 R0
SYMATTR InstName X8
SYMBOL inv 1360 80 R0
SYMATTR InstName X9
SYMBOL inv 1264 208 R0
SYMATTR InstName X10
SYMBOL inv 1392 208 R0
SYMATTR InstName X11
SYMBOL inv 1200 -128 R0
SYMATTR InstName X12
SYMBOL inv 1328 -128 R0
SYMATTR InstName X13
SYMBOL inv 1136 -272 R0
SYMATTR InstName X14
SYMBOL inv 1264 -272 R0
SYMATTR InstName X15
TEXT -144 264 Left 2 !.tran 50n
